# generated using pymatgen
data_Ba2CuH14(C3O8)2
_symmetry_space_group_name_H-M   'P 1'
_cell_length_a   6.94195231
_cell_length_b   7.17878940
_cell_length_c   8.79165165
_cell_angle_alpha   82.25599710
_cell_angle_beta   71.35701702
_cell_angle_gamma   81.58285545
_symmetry_Int_Tables_number   1
_chemical_formula_structural   Ba2CuH14(C3O8)2
_chemical_formula_sum   'Ba2 Cu1 H14 C6 O16'
_cell_volume   408.85747126
_cell_formula_units_Z   1
loop_
 _symmetry_equiv_pos_site_id
 _symmetry_equiv_pos_as_xyz
  1  'x, y, z'
loop_
 _atom_site_type_symbol
 _atom_site_label
 _atom_site_symmetry_multiplicity
 _atom_site_fract_x
 _atom_site_fract_y
 _atom_site_fract_z
 _atom_site_occupancy
  Ba  Ba0  1  0.09830491  0.73435257  0.35340987  1
  Ba  Ba1  1  0.90169454  0.26564683  0.64659097  1
  Cu  Cu2  1  0.00000517  0.99999776  0.99999986  1
  H  H3  1  0.59629623  0.90436682  0.07226429  1
  H  H4  1  0.40370491  0.09563116  0.92773741  1
  H  H5  1  0.00460535  0.36603387  0.08997702  1
  H  H6  1  0.99539477  0.63395988  0.91001972  1
  H  H7  1  0.45740440  0.39774234  0.12471460  1
  H  H8  1  0.54259522  0.60225564  0.87527952  1
  H  H9  1  0.34667918  0.05719876  0.42535163  1
  H  H10  1  0.65332314  0.94280205  0.57465515  1
  H  H11  1  0.30121594  0.92728771  0.59164359  1
  H  H12  1  0.69878199  0.07271169  0.40836218  1
  H  H13  1  0.38406320  0.34763759  0.41905977  1
  H  H14  1  0.61593675  0.65235756  0.58094141  1
  H  H15  1  0.35028880  0.40454035  0.59270859  1
  H  H16  1  0.64970812  0.59546754  0.40729081  1
  C  C17  1  0.65178813  0.80750039  0.16207635  1
  C  C18  1  0.34821436  0.19249901  0.83792485  1
  C  C19  1  0.04497797  0.27531563  0.19007171  1
  C  C20  1  0.95502300  0.72468376  0.80992647  1
  C  C21  1  0.57703131  0.28113492  0.13766959  1
  C  C22  1  0.42296661  0.71886448  0.86232822  1
  O  O23  1  0.83700339  0.81494706  0.15897972  1
  O  O24  1  0.16299910  0.18505234  0.84102035  1
  O  O25  1  0.53521993  0.69684834  0.25823823  1
  O  O26  1  0.46478054  0.30315530  0.74176757  1
  O  O27  1  0.06417235  0.35074004  0.30403184  1
  O  O28  1  0.93581917  0.64926219  0.69596727  1
  O  O29  1  0.07041927  0.09574826  0.17915093  1
  O  O30  1  0.92959099  0.90424973  0.82084733  1
  O  O31  1  0.71897665  0.24145801  0.01129704  1
  O  O32  1  0.28102601  0.75853997  0.98870201  1
  O  O33  1  0.55542234  0.20130160  0.28060418  1
  O  O34  1  0.44457238  0.79869921  0.71939428  1
  O  O35  1  0.24143604  0.98685352  0.50576925  1
  O  O36  1  0.75856307  0.01314871  0.49423591  1
  O  O37  1  0.28603665  0.42259145  0.50474150  1
  O  O38  1  0.71396263  0.57740937  0.49525694  1
