# generated using pymatgen
data_HC3O2
_symmetry_space_group_name_H-M   'P 1'
_cell_length_a   26.34300000
_cell_length_b   26.34300000
_cell_length_c   26.34300000
_cell_angle_alpha   90.00000000
_cell_angle_beta   90.00000000
_cell_angle_gamma   90.00000000
_symmetry_Int_Tables_number   1
_chemical_formula_structural   HC3O2
_chemical_formula_sum   'H96 C288 O192'
_cell_volume   18280.82097561
_cell_formula_units_Z   96
loop_
 _symmetry_equiv_pos_site_id
 _symmetry_equiv_pos_as_xyz
  1  'x, y, z'
loop_
 _atom_site_type_symbol
 _atom_site_label
 _atom_site_symmetry_multiplicity
 _atom_site_fract_x
 _atom_site_fract_y
 _atom_site_fract_z
 _atom_site_occupancy
  C  C0  1  0.61300000  0.67800000  0.32200000  1
  C  C1  1  0.70300000  0.70300000  0.43100000  1
  O  O2  1  0.55200000  0.74300000  0.31700000  1
  H  H3  1  0.62000000  0.62000000  0.27200000  1
  C  C4  1  0.63400000  0.63400000  0.30100000  1
  O  O5  1  0.68300000  0.74300000  0.44800000  1
  C  C6  1  0.67800000  0.67800000  0.38700000  1
  C  C7  1  0.69900000  0.63400000  0.36600000  1
  C  C8  1  0.63400000  0.69900000  0.36600000  1
  H  H9  1  0.62000000  0.72800000  0.38000000  1
  O  O10  1  0.55200000  0.68300000  0.25700000  1
  C  C11  1  0.70300000  0.56900000  0.29700000  1
  O  O12  1  0.74300000  0.68300000  0.44800000  1
  O  O13  1  0.74300000  0.55200000  0.31700000  1
  C  C14  1  0.56900000  0.70300000  0.29700000  1
  C  C15  1  0.67800000  0.61300000  0.32200000  1
  H  H16  1  0.72800000  0.62000000  0.38000000  1
  O  O17  1  0.68300000  0.55200000  0.25700000  1
  C  C18  1  0.38700000  0.32200000  0.32200000  1
  C  C19  1  0.29700000  0.29700000  0.43100000  1
  C  C20  1  0.30100000  0.36600000  0.36600000  1
  H  H21  1  0.38000000  0.38000000  0.27200000  1
  C  C22  1  0.36600000  0.36600000  0.30100000  1
  O  O23  1  0.44800000  0.25700000  0.31700000  1
  C  C24  1  0.32200000  0.32200000  0.38700000  1
  H  H25  1  0.38000000  0.27200000  0.38000000  1
  C  C26  1  0.36600000  0.30100000  0.36600000  1
  O  O27  1  0.31700000  0.25700000  0.44800000  1
  O  O28  1  0.25700000  0.31700000  0.44800000  1
  O  O29  1  0.44800000  0.31700000  0.25700000  1
  C  C30  1  0.29700000  0.43100000  0.29700000  1
  C  C31  1  0.32200000  0.38700000  0.32200000  1
  C  C32  1  0.43100000  0.29700000  0.29700000  1
  O  O33  1  0.25700000  0.44800000  0.31700000  1
  O  O34  1  0.31700000  0.44800000  0.25700000  1
  H  H35  1  0.27200000  0.38000000  0.38000000  1
  C  C36  1  0.36600000  0.63400000  0.30100000  1
  O  O37  1  0.25700000  0.55200000  0.31700000  1
  H  H38  1  0.38000000  0.62000000  0.27200000  1
  C  C39  1  0.32200000  0.67800000  0.38700000  1
  C  C40  1  0.29700000  0.70300000  0.43100000  1
  C  C41  1  0.36600000  0.69900000  0.36600000  1
  C  C42  1  0.30100000  0.63400000  0.36600000  1
  H  H43  1  0.27200000  0.62000000  0.38000000  1
  O  O44  1  0.25700000  0.68300000  0.44800000  1
  O  O45  1  0.31700000  0.74300000  0.44800000  1
  O  O46  1  0.31700000  0.55200000  0.25700000  1
  C  C47  1  0.43100000  0.70300000  0.29700000  1
  C  C48  1  0.29700000  0.56900000  0.29700000  1
  C  C49  1  0.38700000  0.67800000  0.32200000  1
  H  H50  1  0.38000000  0.72800000  0.38000000  1
  O  O51  1  0.44800000  0.68300000  0.25700000  1
  O  O52  1  0.44800000  0.74300000  0.31700000  1
  C  C53  1  0.32200000  0.61300000  0.32200000  1
  C  C54  1  0.13400000  0.36600000  0.19900000  1
  H  H55  1  0.12000000  0.38000000  0.22800000  1
  O  O56  1  0.05200000  0.25700000  0.18300000  1
  C  C57  1  0.20300000  0.29700000  0.06900000  1
  O  O58  1  0.18300000  0.25700000  0.05200000  1
  C  C59  1  0.20300000  0.43100000  0.20300000  1
  H  H60  1  0.12000000  0.27200000  0.12000000  1
  C  C61  1  0.13400000  0.30100000  0.13400000  1
  C  C62  1  0.17800000  0.32200000  0.11300000  1
  H  H63  1  0.22800000  0.38000000  0.12000000  1
  C  C64  1  0.17800000  0.38700000  0.17800000  1
  O  O65  1  0.05200000  0.31700000  0.24300000  1
  C  C66  1  0.06900000  0.29700000  0.20300000  1
  O  O67  1  0.24300000  0.31700000  0.05200000  1
  C  C68  1  0.19900000  0.36600000  0.13400000  1
  O  O69  1  0.18300000  0.44800000  0.24300000  1
  O  O70  1  0.24300000  0.44800000  0.18300000  1
  C  C71  1  0.11300000  0.32200000  0.17800000  1
  C  C72  1  0.86600000  0.36600000  0.19900000  1
  H  H73  1  0.88000000  0.38000000  0.22800000  1
  O  O74  1  0.75700000  0.44800000  0.18300000  1
  C  C75  1  0.79700000  0.29700000  0.06900000  1
  C  C76  1  0.93100000  0.29700000  0.20300000  1
  H  H77  1  0.77200000  0.38000000  0.12000000  1
  C  C78  1  0.80100000  0.36600000  0.13400000  1
  O  O79  1  0.75700000  0.31700000  0.05200000  1
  C  C80  1  0.82200000  0.32200000  0.11300000  1
  C  C81  1  0.88700000  0.32200000  0.17800000  1
  C  C82  1  0.86600000  0.30100000  0.13400000  1
  C  C83  1  0.79700000  0.43100000  0.20300000  1
  O  O84  1  0.81700000  0.25700000  0.05200000  1
  O  O85  1  0.81700000  0.44800000  0.24300000  1
  O  O86  1  0.94800000  0.31700000  0.24300000  1
  H  H87  1  0.88000000  0.27200000  0.12000000  1
  C  C88  1  0.82200000  0.38700000  0.17800000  1
  O  O89  1  0.94800000  0.25700000  0.18300000  1
  O  O90  1  0.94800000  0.74300000  0.18300000  1
  H  H91  1  0.88000000  0.62000000  0.22800000  1
  C  C92  1  0.86600000  0.63400000  0.19900000  1
  C  C93  1  0.80100000  0.63400000  0.13400000  1
  C  C94  1  0.79700000  0.70300000  0.06900000  1
  H  H95  1  0.88000000  0.72800000  0.12000000  1
  C  C96  1  0.86600000  0.69900000  0.13400000  1
  O  O97  1  0.81700000  0.74300000  0.05200000  1
  C  C98  1  0.79700000  0.56900000  0.20300000  1
  C  C99  1  0.82200000  0.67800000  0.11300000  1
  C  C100  1  0.93100000  0.70300000  0.20300000  1
  C  C101  1  0.82200000  0.61300000  0.17800000  1
  O  O102  1  0.94800000  0.68300000  0.24300000  1
  O  O103  1  0.75700000  0.68300000  0.05200000  1
  O  O104  1  0.75700000  0.55200000  0.18300000  1
  O  O105  1  0.81700000  0.55200000  0.24300000  1
  C  C106  1  0.88700000  0.67800000  0.17800000  1
  H  H107  1  0.77200000  0.62000000  0.12000000  1
  O  O108  1  0.24300000  0.55200000  0.18300000  1
  C  C109  1  0.13400000  0.63400000  0.19900000  1
  H  H110  1  0.12000000  0.62000000  0.22800000  1
  C  C111  1  0.20300000  0.70300000  0.06900000  1
  H  H112  1  0.22800000  0.62000000  0.12000000  1
  C  C113  1  0.19900000  0.63400000  0.13400000  1
  O  O114  1  0.24300000  0.68300000  0.05200000  1
  C  C115  1  0.06900000  0.70300000  0.20300000  1
  C  C116  1  0.17800000  0.67800000  0.11300000  1
  C  C117  1  0.20300000  0.56900000  0.20300000  1
  C  C118  1  0.11300000  0.67800000  0.17800000  1
  O  O119  1  0.18300000  0.55200000  0.24300000  1
  O  O120  1  0.18300000  0.74300000  0.05200000  1
  H  H121  1  0.12000000  0.72800000  0.12000000  1
  O  O122  1  0.05200000  0.68300000  0.24300000  1
  C  C123  1  0.17800000  0.61300000  0.17800000  1
  C  C124  1  0.13400000  0.69900000  0.13400000  1
  O  O125  1  0.05200000  0.74300000  0.18300000  1
  O  O126  1  0.74300000  0.44800000  0.31700000  1
  C  C127  1  0.70300000  0.29700000  0.43100000  1
  H  H128  1  0.62000000  0.38000000  0.27200000  1
  C  C129  1  0.63400000  0.36600000  0.30100000  1
  H  H130  1  0.72800000  0.38000000  0.38000000  1
  C  C131  1  0.69900000  0.36600000  0.36600000  1
  C  C132  1  0.63400000  0.30100000  0.36600000  1
  C  C133  1  0.67800000  0.38700000  0.32200000  1
  C  C134  1  0.67800000  0.32200000  0.38700000  1
  O  O135  1  0.74300000  0.31700000  0.44800000  1
  C  C136  1  0.56900000  0.29700000  0.29700000  1
  C  C137  1  0.70300000  0.43100000  0.29700000  1
  O  O138  1  0.68300000  0.25700000  0.44800000  1
  O  O139  1  0.68300000  0.44800000  0.25700000  1
  O  O140  1  0.55200000  0.25700000  0.31700000  1
  C  C141  1  0.61300000  0.32200000  0.32200000  1
  H  H142  1  0.62000000  0.27200000  0.38000000  1
  O  O143  1  0.55200000  0.31700000  0.25700000  1
  O  O144  1  0.55200000  0.18300000  0.75700000  1
  H  H145  1  0.72800000  0.12000000  0.88000000  1
  O  O146  1  0.74300000  0.18300000  0.94800000  1
  C  C147  1  0.67800000  0.17800000  0.88700000  1
  C  C148  1  0.63400000  0.19900000  0.86600000  1
  C  C149  1  0.70300000  0.06900000  0.79700000  1
  O  O150  1  0.74300000  0.05200000  0.81700000  1
  H  H151  1  0.62000000  0.12000000  0.77200000  1
  C  C152  1  0.56900000  0.20300000  0.79700000  1
  C  C153  1  0.67800000  0.11300000  0.82200000  1
  O  O154  1  0.68300000  0.05200000  0.75700000  1
  C  C155  1  0.69900000  0.13400000  0.86600000  1
  H  H156  1  0.62000000  0.22800000  0.88000000  1
  O  O157  1  0.55200000  0.24300000  0.81700000  1
  C  C158  1  0.61300000  0.17800000  0.82200000  1
  C  C159  1  0.70300000  0.20300000  0.93100000  1
  O  O160  1  0.68300000  0.24300000  0.94800000  1
  C  C161  1  0.63400000  0.13400000  0.80100000  1
  O  O162  1  0.25700000  0.81700000  0.94800000  1
  H  H163  1  0.27200000  0.88000000  0.88000000  1
  O  O164  1  0.44800000  0.81700000  0.75700000  1
  C  C165  1  0.32200000  0.82200000  0.88700000  1
  C  C166  1  0.36600000  0.80100000  0.86600000  1
  C  C167  1  0.29700000  0.93100000  0.79700000  1
  O  O168  1  0.25700000  0.94800000  0.81700000  1
  H  H169  1  0.38000000  0.88000000  0.77200000  1
  O  O170  1  0.31700000  0.94800000  0.75700000  1
  C  C171  1  0.43100000  0.79700000  0.79700000  1
  C  C172  1  0.32200000  0.88700000  0.82200000  1
  C  C173  1  0.30100000  0.86600000  0.86600000  1
  H  H174  1  0.38000000  0.77200000  0.88000000  1
  O  O175  1  0.44800000  0.75700000  0.81700000  1
  C  C176  1  0.38700000  0.82200000  0.82200000  1
  C  C177  1  0.29700000  0.79700000  0.93100000  1
  C  C178  1  0.36600000  0.86600000  0.80100000  1
  O  O179  1  0.31700000  0.75700000  0.94800000  1
  C  C180  1  0.32200000  0.17800000  0.88700000  1
  C  C181  1  0.29700000  0.20300000  0.93100000  1
  C  C182  1  0.36600000  0.19900000  0.86600000  1
  O  O183  1  0.31700000  0.24300000  0.94800000  1
  H  H184  1  0.38000000  0.22800000  0.88000000  1
  C  C185  1  0.30100000  0.13400000  0.86600000  1
  O  O186  1  0.31700000  0.05200000  0.75700000  1
  C  C187  1  0.43100000  0.20300000  0.79700000  1
  H  H188  1  0.38000000  0.12000000  0.77200000  1
  O  O189  1  0.44800000  0.18300000  0.75700000  1
  C  C190  1  0.29700000  0.06900000  0.79700000  1
  C  C191  1  0.38700000  0.17800000  0.82200000  1
  O  O192  1  0.44800000  0.24300000  0.81700000  1
  H  H193  1  0.27200000  0.12000000  0.88000000  1
  O  O194  1  0.25700000  0.05200000  0.81700000  1
  C  C195  1  0.32200000  0.11300000  0.82200000  1
  C  C196  1  0.36600000  0.13400000  0.80100000  1
  O  O197  1  0.25700000  0.18300000  0.94800000  1
  C  C198  1  0.20300000  0.93100000  0.70300000  1
  O  O199  1  0.05200000  0.81700000  0.74300000  1
  C  C200  1  0.13400000  0.80100000  0.63400000  1
  H  H201  1  0.22800000  0.88000000  0.62000000  1
  C  C202  1  0.17800000  0.82200000  0.61300000  1
  O  O203  1  0.24300000  0.81700000  0.55200000  1
  H  H204  1  0.12000000  0.88000000  0.72800000  1
  O  O205  1  0.18300000  0.94800000  0.74300000  1
  C  C206  1  0.17800000  0.88700000  0.67800000  1
  C  C207  1  0.06900000  0.79700000  0.70300000  1
  O  O208  1  0.24300000  0.94800000  0.68300000  1
  H  H209  1  0.12000000  0.77200000  0.62000000  1
  C  C210  1  0.19900000  0.86600000  0.63400000  1
  C  C211  1  0.11300000  0.82200000  0.67800000  1
  O  O212  1  0.05200000  0.75700000  0.68300000  1
  O  O213  1  0.18300000  0.75700000  0.55200000  1
  C  C214  1  0.13400000  0.86600000  0.69900000  1
  C  C215  1  0.20300000  0.79700000  0.56900000  1
  C  C216  1  0.93100000  0.79700000  0.70300000  1
  C  C217  1  0.80100000  0.86600000  0.63400000  1
  H  H218  1  0.88000000  0.77200000  0.62000000  1
  O  O219  1  0.81700000  0.75700000  0.55200000  1
  C  C220  1  0.82200000  0.82200000  0.61300000  1
  O  O221  1  0.81700000  0.94800000  0.74300000  1
  H  H222  1  0.88000000  0.88000000  0.72800000  1
  O  O223  1  0.94800000  0.81700000  0.74300000  1
  C  C224  1  0.88700000  0.82200000  0.67800000  1
  C  C225  1  0.79700000  0.93100000  0.70300000  1
  O  O226  1  0.94800000  0.75700000  0.68300000  1
  H  H227  1  0.77200000  0.88000000  0.62000000  1
  C  C228  1  0.86600000  0.80100000  0.63400000  1
  C  C229  1  0.82200000  0.88700000  0.67800000  1
  O  O230  1  0.75700000  0.94800000  0.68300000  1
  C  C231  1  0.86600000  0.86600000  0.69900000  1
  O  O232  1  0.75700000  0.81700000  0.55200000  1
  C  C233  1  0.79700000  0.79700000  0.56900000  1
  C  C234  1  0.79700000  0.20300000  0.56900000  1
  C  C235  1  0.86600000  0.19900000  0.63400000  1
  C  C236  1  0.79700000  0.06900000  0.70300000  1
  O  O237  1  0.94800000  0.18300000  0.74300000  1
  O  O238  1  0.75700000  0.18300000  0.55200000  1
  H  H239  1  0.77200000  0.12000000  0.62000000  1
  C  C240  1  0.82200000  0.17800000  0.61300000  1
  O  O241  1  0.75700000  0.05200000  0.68300000  1
  C  C242  1  0.93100000  0.20300000  0.70300000  1
  H  H243  1  0.88000000  0.12000000  0.72800000  1
  C  C244  1  0.82200000  0.11300000  0.67800000  1
  O  O245  1  0.81700000  0.05200000  0.74300000  1
  H  H246  1  0.88000000  0.22800000  0.62000000  1
  O  O247  1  0.94800000  0.24300000  0.68300000  1
  C  C248  1  0.88700000  0.17800000  0.67800000  1
  C  C249  1  0.80100000  0.13400000  0.63400000  1
  O  O250  1  0.81700000  0.24300000  0.55200000  1
  C  C251  1  0.86600000  0.13400000  0.69900000  1
  C  C252  1  0.19900000  0.13400000  0.63400000  1
  C  C253  1  0.06900000  0.20300000  0.70300000  1
  O  O254  1  0.18300000  0.05200000  0.74300000  1
  O  O255  1  0.18300000  0.24300000  0.55200000  1
  H  H256  1  0.12000000  0.22800000  0.62000000  1
  C  C257  1  0.17800000  0.17800000  0.61300000  1
  C  C258  1  0.20300000  0.06900000  0.70300000  1
  H  H259  1  0.12000000  0.12000000  0.72800000  1
  C  C260  1  0.11300000  0.17800000  0.67800000  1
  O  O261  1  0.05200000  0.18300000  0.74300000  1
  O  O262  1  0.05200000  0.24300000  0.68300000  1
  H  H263  1  0.22800000  0.12000000  0.62000000  1
  O  O264  1  0.24300000  0.05200000  0.68300000  1
  C  C265  1  0.17800000  0.11300000  0.67800000  1
  C  C266  1  0.13400000  0.19900000  0.63400000  1
  O  O267  1  0.24300000  0.18300000  0.55200000  1
  C  C268  1  0.13400000  0.13400000  0.69900000  1
  C  C269  1  0.20300000  0.20300000  0.56900000  1
  C  C270  1  0.69900000  0.86600000  0.86600000  1
  H  H271  1  0.62000000  0.77200000  0.88000000  1
  O  O272  1  0.68300000  0.94800000  0.75700000  1
  C  C273  1  0.67800000  0.82200000  0.88700000  1
  O  O274  1  0.68300000  0.75700000  0.94800000  1
  C  C275  1  0.56900000  0.79700000  0.79700000  1
  C  C276  1  0.70300000  0.93100000  0.79700000  1
  O  O277  1  0.55200000  0.75700000  0.81700000  1
  H  H278  1  0.62000000  0.88000000  0.77200000  1
  O  O279  1  0.55200000  0.81700000  0.75700000  1
  H  H280  1  0.72800000  0.88000000  0.88000000  1
  O  O281  1  0.74300000  0.94800000  0.81700000  1
  C  C282  1  0.67800000  0.88700000  0.82200000  1
  C  C283  1  0.63400000  0.80100000  0.86600000  1
  C  C284  1  0.61300000  0.82200000  0.82200000  1
  C  C285  1  0.70300000  0.79700000  0.93100000  1
  C  C286  1  0.63400000  0.86600000  0.80100000  1
  O  O287  1  0.74300000  0.81700000  0.94800000  1
  C  C288  1  0.20300000  0.56900000  0.79700000  1
  O  O289  1  0.05200000  0.74300000  0.81700000  1
  C  C290  1  0.06900000  0.70300000  0.79700000  1
  C  C291  1  0.17800000  0.61300000  0.82200000  1
  C  C292  1  0.13400000  0.69900000  0.86600000  1
  C  C293  1  0.19900000  0.63400000  0.86600000  1
  H  H294  1  0.22800000  0.62000000  0.88000000  1
  O  O295  1  0.18300000  0.74300000  0.94800000  1
  O  O296  1  0.05200000  0.68300000  0.75700000  1
  C  C297  1  0.11300000  0.67800000  0.82200000  1
  O  O298  1  0.24300000  0.68300000  0.94800000  1
  C  C299  1  0.20300000  0.70300000  0.93100000  1
  H  H300  1  0.12000000  0.62000000  0.77200000  1
  O  O301  1  0.24300000  0.55200000  0.81700000  1
  C  C302  1  0.13400000  0.63400000  0.80100000  1
  C  C303  1  0.17800000  0.67800000  0.88700000  1
  H  H304  1  0.12000000  0.72800000  0.88000000  1
  O  O305  1  0.18300000  0.55200000  0.75700000  1
  C  C306  1  0.86600000  0.30100000  0.86600000  1
  O  O307  1  0.94800000  0.25700000  0.81700000  1
  C  C308  1  0.82200000  0.38700000  0.82200000  1
  C  C309  1  0.93100000  0.29700000  0.79700000  1
  C  C310  1  0.80100000  0.36600000  0.86600000  1
  H  H311  1  0.77200000  0.38000000  0.88000000  1
  O  O312  1  0.81700000  0.25700000  0.94800000  1
  C  C313  1  0.88700000  0.32200000  0.82200000  1
  O  O314  1  0.75700000  0.31700000  0.94800000  1
  C  C315  1  0.79700000  0.29700000  0.93100000  1
  O  O316  1  0.94800000  0.31700000  0.75700000  1
  C  C317  1  0.86600000  0.36600000  0.80100000  1
  H  H318  1  0.88000000  0.38000000  0.77200000  1
  H  H319  1  0.88000000  0.27200000  0.88000000  1
  O  O320  1  0.75700000  0.44800000  0.81700000  1
  C  C321  1  0.82200000  0.32200000  0.88700000  1
  O  O322  1  0.81700000  0.44800000  0.75700000  1
  C  C323  1  0.79700000  0.43100000  0.79700000  1
  O  O324  1  0.75700000  0.55200000  0.81700000  1
  C  C325  1  0.88700000  0.67800000  0.82200000  1
  C  C326  1  0.79700000  0.56900000  0.79700000  1
  H  H327  1  0.88000000  0.72800000  0.88000000  1
  O  O328  1  0.75700000  0.68300000  0.94800000  1
  C  C329  1  0.93100000  0.70300000  0.79700000  1
  C  C330  1  0.82200000  0.61300000  0.82200000  1
  O  O331  1  0.81700000  0.74300000  0.94800000  1
  O  O332  1  0.81700000  0.55200000  0.75700000  1
  C  C333  1  0.80100000  0.63400000  0.86600000  1
  C  C334  1  0.86600000  0.63400000  0.80100000  1
  H  H335  1  0.88000000  0.62000000  0.77200000  1
  C  C336  1  0.82200000  0.67800000  0.88700000  1
  C  C337  1  0.79700000  0.70300000  0.93100000  1
  C  C338  1  0.86600000  0.69900000  0.86600000  1
  O  O339  1  0.94800000  0.68300000  0.75700000  1
  H  H340  1  0.77200000  0.62000000  0.88000000  1
  O  O341  1  0.94800000  0.74300000  0.81700000  1
  C  C342  1  0.67800000  0.38700000  0.67800000  1
  O  O343  1  0.55200000  0.25700000  0.68300000  1
  C  C344  1  0.56900000  0.29700000  0.70300000  1
  O  O345  1  0.68300000  0.25700000  0.55200000  1
  C  C346  1  0.69900000  0.36600000  0.63400000  1
  C  C347  1  0.61300000  0.32200000  0.67800000  1
  H  H348  1  0.72800000  0.38000000  0.62000000  1
  C  C349  1  0.63400000  0.36600000  0.69900000  1
  H  H350  1  0.62000000  0.38000000  0.72800000  1
  O  O351  1  0.55200000  0.31700000  0.74300000  1
  O  O352  1  0.74300000  0.31700000  0.55200000  1
  C  C353  1  0.70300000  0.29700000  0.56900000  1
  C  C354  1  0.63400000  0.30100000  0.63400000  1
  O  O355  1  0.68300000  0.44800000  0.74300000  1
  C  C356  1  0.70300000  0.43100000  0.70300000  1
  H  H357  1  0.62000000  0.27200000  0.62000000  1
  O  O358  1  0.74300000  0.44800000  0.68300000  1
  C  C359  1  0.67800000  0.32200000  0.61300000  1
  C  C360  1  0.38700000  0.32200000  0.67800000  1
  O  O361  1  0.25700000  0.44800000  0.68300000  1
  C  C362  1  0.29700000  0.43100000  0.70300000  1
  O  O363  1  0.25700000  0.31700000  0.55200000  1
  C  C364  1  0.36600000  0.30100000  0.63400000  1
  C  C365  1  0.32200000  0.38700000  0.67800000  1
  H  H366  1  0.38000000  0.27200000  0.62000000  1
  C  C367  1  0.36600000  0.36600000  0.69900000  1
  H  H368  1  0.38000000  0.38000000  0.72800000  1
  C  C369  1  0.30100000  0.36600000  0.63400000  1
  O  O370  1  0.31700000  0.25700000  0.55200000  1
  C  C371  1  0.29700000  0.29700000  0.56900000  1
  O  O372  1  0.31700000  0.44800000  0.74300000  1
  O  O373  1  0.44800000  0.31700000  0.74300000  1
  C  C374  1  0.43100000  0.29700000  0.70300000  1
  H  H375  1  0.27200000  0.38000000  0.62000000  1
  C  C376  1  0.32200000  0.32200000  0.61300000  1
  O  O377  1  0.44800000  0.25700000  0.68300000  1
  C  C378  1  0.32200000  0.67800000  0.61300000  1
  O  O379  1  0.44800000  0.74300000  0.68300000  1
  C  C380  1  0.43100000  0.70300000  0.70300000  1
  C  C381  1  0.29700000  0.70300000  0.56900000  1
  C  C382  1  0.32200000  0.61300000  0.67800000  1
  H  H383  1  0.38000000  0.72800000  0.62000000  1
  O  O384  1  0.31700000  0.74300000  0.55200000  1
  C  C385  1  0.38700000  0.67800000  0.67800000  1
  C  C386  1  0.30100000  0.63400000  0.63400000  1
  H  H387  1  0.27200000  0.62000000  0.62000000  1
  C  C388  1  0.36600000  0.63400000  0.69900000  1
  H  H389  1  0.38000000  0.62000000  0.72800000  1
  O  O390  1  0.44800000  0.68300000  0.74300000  1
  O  O391  1  0.25700000  0.68300000  0.55200000  1
  O  O392  1  0.25700000  0.55200000  0.68300000  1
  C  C393  1  0.36600000  0.69900000  0.63400000  1
  O  O394  1  0.31700000  0.55200000  0.74300000  1
  C  C395  1  0.29700000  0.56900000  0.70300000  1
  C  C396  1  0.67800000  0.67800000  0.61300000  1
  O  O397  1  0.74300000  0.55200000  0.68300000  1
  C  C398  1  0.70300000  0.56900000  0.70300000  1
  H  H399  1  0.72800000  0.62000000  0.62000000  1
  C  C400  1  0.61300000  0.67800000  0.67800000  1
  O  O401  1  0.74300000  0.68300000  0.55200000  1
  C  C402  1  0.67800000  0.61300000  0.67800000  1
  C  C403  1  0.63400000  0.69900000  0.63400000  1
  H  H404  1  0.62000000  0.72800000  0.62000000  1
  C  C405  1  0.63400000  0.63400000  0.69900000  1
  H  H406  1  0.62000000  0.62000000  0.72800000  1
  O  O407  1  0.68300000  0.55200000  0.74300000  1
  O  O408  1  0.68300000  0.74300000  0.55200000  1
  C  C409  1  0.70300000  0.70300000  0.56900000  1
  C  C410  1  0.69900000  0.63400000  0.63400000  1
  O  O411  1  0.55200000  0.68300000  0.74300000  1
  C  C412  1  0.56900000  0.70300000  0.70300000  1
  O  O413  1  0.55200000  0.74300000  0.68300000  1
  O  O414  1  0.24300000  0.44800000  0.81700000  1
  C  C415  1  0.20300000  0.43100000  0.79700000  1
  C  C416  1  0.11300000  0.32200000  0.82200000  1
  C  C417  1  0.17800000  0.38700000  0.82200000  1
  C  C418  1  0.13400000  0.30100000  0.86600000  1
  H  H419  1  0.12000000  0.27200000  0.88000000  1
  O  O420  1  0.24300000  0.31700000  0.94800000  1
  O  O421  1  0.18300000  0.25700000  0.94800000  1
  C  C422  1  0.20300000  0.29700000  0.93100000  1
  O  O423  1  0.18300000  0.44800000  0.75700000  1
  C  C424  1  0.13400000  0.36600000  0.80100000  1
  H  H425  1  0.12000000  0.38000000  0.77200000  1
  C  C426  1  0.19900000  0.36600000  0.86600000  1
  O  O427  1  0.05200000  0.25700000  0.81700000  1
  H  H428  1  0.22800000  0.38000000  0.88000000  1
  C  C429  1  0.17800000  0.32200000  0.88700000  1
  O  O430  1  0.05200000  0.31700000  0.75700000  1
  C  C431  1  0.06900000  0.29700000  0.79700000  1
  C  C432  1  0.06900000  0.20300000  0.29700000  1
  O  O433  1  0.05200000  0.18300000  0.25700000  1
  C  C434  1  0.17800000  0.11300000  0.32200000  1
  C  C435  1  0.19900000  0.13400000  0.36600000  1
  O  O436  1  0.24300000  0.18300000  0.44800000  1
  H  H437  1  0.12000000  0.22800000  0.38000000  1
  C  C438  1  0.11300000  0.17800000  0.32200000  1
  O  O439  1  0.24300000  0.05200000  0.31700000  1
  C  C440  1  0.20300000  0.20300000  0.43100000  1
  C  C441  1  0.13400000  0.13400000  0.30100000  1
  O  O442  1  0.18300000  0.05200000  0.25700000  1
  H  H443  1  0.22800000  0.12000000  0.38000000  1
  C  C444  1  0.17800000  0.17800000  0.38700000  1
  O  O445  1  0.05200000  0.24300000  0.31700000  1
  C  C446  1  0.20300000  0.06900000  0.29700000  1
  O  O447  1  0.18300000  0.24300000  0.44800000  1
  C  C448  1  0.13400000  0.19900000  0.36600000  1
  H  H449  1  0.12000000  0.12000000  0.27200000  1
  C  C450  1  0.80100000  0.86600000  0.36600000  1
  O  O451  1  0.94800000  0.81700000  0.25700000  1
  O  O452  1  0.75700000  0.81700000  0.44800000  1
  C  C453  1  0.93100000  0.79700000  0.29700000  1
  H  H454  1  0.88000000  0.77200000  0.38000000  1
  C  C455  1  0.88700000  0.82200000  0.32200000  1
  O  O456  1  0.75700000  0.94800000  0.31700000  1
  C  C457  1  0.79700000  0.79700000  0.43100000  1
  C  C458  1  0.86600000  0.86600000  0.30100000  1
  O  O459  1  0.81700000  0.94800000  0.25700000  1
  H  H460  1  0.77200000  0.88000000  0.38000000  1
  C  C461  1  0.82200000  0.82200000  0.38700000  1
  C  C462  1  0.86600000  0.80100000  0.36600000  1
  O  O463  1  0.94800000  0.75700000  0.31700000  1
  C  C464  1  0.79700000  0.93100000  0.29700000  1
  H  H465  1  0.88000000  0.88000000  0.27200000  1
  O  O466  1  0.81700000  0.75700000  0.44800000  1
  C  C467  1  0.82200000  0.88700000  0.32200000  1
  O  O468  1  0.81700000  0.24300000  0.44800000  1
  O  O469  1  0.81700000  0.05200000  0.25700000  1
  H  H470  1  0.77200000  0.12000000  0.38000000  1
  C  C471  1  0.82200000  0.11300000  0.32200000  1
  C  C472  1  0.86600000  0.13400000  0.30100000  1
  O  O473  1  0.94800000  0.24300000  0.31700000  1
  O  O474  1  0.94800000  0.18300000  0.25700000  1
  C  C475  1  0.82200000  0.17800000  0.38700000  1
  C  C476  1  0.79700000  0.20300000  0.43100000  1
  C  C477  1  0.86600000  0.19900000  0.36600000  1
  H  H478  1  0.88000000  0.22800000  0.38000000  1
  C  C479  1  0.80100000  0.13400000  0.36600000  1
  O  O480  1  0.75700000  0.05200000  0.31700000  1
  C  C481  1  0.93100000  0.20300000  0.29700000  1
  H  H482  1  0.88000000  0.12000000  0.27200000  1
  O  O483  1  0.75700000  0.18300000  0.44800000  1
  C  C484  1  0.88700000  0.17800000  0.32200000  1
  C  C485  1  0.79700000  0.06900000  0.29700000  1
  O  O486  1  0.55200000  0.81700000  0.24300000  1
  O  O487  1  0.74300000  0.81700000  0.05200000  1
  H  H488  1  0.62000000  0.77200000  0.12000000  1
  C  C489  1  0.69900000  0.86600000  0.13400000  1
  C  C490  1  0.61300000  0.82200000  0.17800000  1
  C  C491  1  0.63400000  0.86600000  0.19900000  1
  O  O492  1  0.68300000  0.94800000  0.24300000  1
  O  O493  1  0.74300000  0.94800000  0.18300000  1
  C  C494  1  0.70300000  0.79700000  0.06900000  1
  C  C495  1  0.70300000  0.93100000  0.20300000  1
  C  C496  1  0.63400000  0.80100000  0.13400000  1
  O  O497  1  0.55200000  0.75700000  0.18300000  1
  H  H498  1  0.72800000  0.88000000  0.12000000  1
  C  C499  1  0.67800000  0.82200000  0.11300000  1
  O  O500  1  0.68300000  0.75700000  0.05200000  1
  H  H501  1  0.62000000  0.88000000  0.22800000  1
  C  C502  1  0.67800000  0.88700000  0.17800000  1
  C  C503  1  0.56900000  0.79700000  0.20300000  1
  H  H504  1  0.27200000  0.88000000  0.12000000  1
  O  O505  1  0.31700000  0.75700000  0.05200000  1
  C  C506  1  0.36600000  0.80100000  0.13400000  1
  C  C507  1  0.32200000  0.88700000  0.17800000  1
  O  O508  1  0.31700000  0.94800000  0.24300000  1
  C  C509  1  0.36600000  0.86600000  0.19900000  1
  O  O510  1  0.44800000  0.81700000  0.24300000  1
  C  C511  1  0.29700000  0.79700000  0.06900000  1
  O  O512  1  0.44800000  0.75700000  0.18300000  1
  C  C513  1  0.43100000  0.79700000  0.20300000  1
  C  C514  1  0.30100000  0.86600000  0.13400000  1
  O  O515  1  0.25700000  0.94800000  0.18300000  1
  H  H516  1  0.38000000  0.77200000  0.12000000  1
  C  C517  1  0.32200000  0.82200000  0.11300000  1
  H  H518  1  0.38000000  0.88000000  0.22800000  1
  C  C519  1  0.38700000  0.82200000  0.17800000  1
  O  O520  1  0.25700000  0.81700000  0.05200000  1
  C  C521  1  0.29700000  0.93100000  0.20300000  1
  H  H522  1  0.38000000  0.22800000  0.12000000  1
  C  C523  1  0.38700000  0.17800000  0.17800000  1
  O  O524  1  0.44800000  0.18300000  0.24300000  1
  O  O525  1  0.25700000  0.18300000  0.05200000  1
  C  C526  1  0.30100000  0.13400000  0.13400000  1
  O  O527  1  0.25700000  0.05200000  0.18300000  1
  C  C528  1  0.36600000  0.13400000  0.19900000  1
  O  O529  1  0.31700000  0.05200000  0.24300000  1
  C  C530  1  0.29700000  0.20300000  0.06900000  1
  C  C531  1  0.43100000  0.20300000  0.20300000  1
  C  C532  1  0.36600000  0.19900000  0.13400000  1
  O  O533  1  0.44800000  0.24300000  0.18300000  1
  C  C534  1  0.29700000  0.06900000  0.20300000  1
  H  H535  1  0.27200000  0.12000000  0.12000000  1
  C  C536  1  0.32200000  0.17800000  0.11300000  1
  O  O537  1  0.31700000  0.24300000  0.05200000  1
  H  H538  1  0.38000000  0.12000000  0.22800000  1
  C  C539  1  0.32200000  0.11300000  0.17800000  1
  H  H540  1  0.72800000  0.12000000  0.12000000  1
  C  C541  1  0.67800000  0.11300000  0.17800000  1
  O  O542  1  0.68300000  0.05200000  0.24300000  1
  C  C543  1  0.63400000  0.19900000  0.13400000  1
  O  O544  1  0.68300000  0.24300000  0.05200000  1
  C  C545  1  0.63400000  0.13400000  0.19900000  1
  O  O546  1  0.55200000  0.18300000  0.24300000  1
  C  C547  1  0.70300000  0.06900000  0.20300000  1
  O  O548  1  0.55200000  0.24300000  0.18300000  1
  C  C549  1  0.70300000  0.20300000  0.06900000  1
  C  C550  1  0.69900000  0.13400000  0.13400000  1
  O  O551  1  0.74300000  0.05200000  0.18300000  1
  C  C552  1  0.56900000  0.20300000  0.20300000  1
  H  H553  1  0.62000000  0.22800000  0.12000000  1
  C  C554  1  0.67800000  0.17800000  0.11300000  1
  O  O555  1  0.74300000  0.18300000  0.05200000  1
  H  H556  1  0.62000000  0.12000000  0.22800000  1
  C  C557  1  0.61300000  0.17800000  0.17800000  1
  H  H558  1  0.22800000  0.88000000  0.38000000  1
  C  C559  1  0.11300000  0.82200000  0.32200000  1
  C  C560  1  0.17800000  0.88700000  0.32200000  1
  O  O561  1  0.18300000  0.75700000  0.44800000  1
  C  C562  1  0.13400000  0.80100000  0.36600000  1
  O  O563  1  0.18300000  0.94800000  0.25700000  1
  O  O564  1  0.05200000  0.75700000  0.31700000  1
  C  C565  1  0.20300000  0.79700000  0.43100000  1
  C  C566  1  0.13400000  0.86600000  0.30100000  1
  O  O567  1  0.05200000  0.81700000  0.25700000  1
  C  C568  1  0.19900000  0.86600000  0.36600000  1
  O  O569  1  0.24300000  0.94800000  0.31700000  1
  H  H570  1  0.12000000  0.77200000  0.38000000  1
  C  C571  1  0.17800000  0.82200000  0.38700000  1
  C  C572  1  0.06900000  0.79700000  0.29700000  1
  C  C573  1  0.20300000  0.93100000  0.29700000  1
  H  H574  1  0.12000000  0.88000000  0.27200000  1
  O  O575  1  0.24300000  0.81700000  0.44800000  1
